DEBUT(LANG='FR')


tsth = 1 / 31

ttth = 1 / 11

one21th = 1 / 21

mesh1D = LIRE_MAILLAGE(identifier='3:1',
                       UNITE=20)

modelEB = AFFE_MODELE(identifier='4:1',
                      AFFE=_F(GROUP_MA=('EBfullEdge', 'InHomo'),
                              MODELISATION='POU_D_E',
                              PHENOMENE='MECANIQUE'),
                      MAILLAGE=mesh1D)

elemproEB = AFFE_CARA_ELEM(identifier='5:1',
                           MODELE=modelEB,
                           POUTRE=(_F(CARA=('HY', 'HZ'),
                                      GROUP_MA=('EBfullEdge', ),
                                      SECTION='RECTANGLE',
                                      VALE=(0.05, 0.002)),
                                   _F(CARA=('HY', 'HZ'),
                                      GROUP_MA=('InHomoSmall', ),
                                      SECTION='RECTANGLE',
                                      VALE=(0.05, 0.004))))

mater = DEFI_MATERIAU(identifier='6:1',
                      ELAS=_F(AMOR_HYST=0.01,
                              E=210000000000.0,
                              NU=0.3,
                              RHO=7850.0))

mater2 = DEFI_MATERIAU(identifier='7:1',
                       ELAS=_F(AMOR_HYST=0.4,
                               E=210000000000.0,
                               NU=0.3,
                               RHO=7850.0))

mater3 = DEFI_MATERIAU(identifier='8:1',
                       ELAS=_F(AMOR_HYST=0.5,
                               E=210000000000.0,
                               NU=0.3,
                               RHO=7850.0))

fieldmatEB = AFFE_MATERIAU(identifier='9:1',
                           AFFE=(_F(MATER=(mater, ),
                                    TOUT='OUI'),
                                 _F(GROUP_MA=('InHomoSmall', ),
                                    MATER=(mater2, )),
                                 _F(GROUP_MA=('SecondPartEdges', ),
                                    MATER=(mater3, ))),
                           MAILLAGE=mesh1D,
                           MODELE=modelEB)

listFr = DEFI_LIST_REEL(identifier='10:1',
                        VALE=(35.4, 35.6, 35.9, 36.1, 36.4, 36.6, 36.9, 37.2, 37.4, 37.7, 38.0, 38.3, 38.5, 38.8, 39.1, 39.4, 39.7, 40.0, 40.2, 40.5, 40.8, 41.1, 41.4, 41.7, 42.0, 42.3, 42.6, 42.9, 43.2, 43.6, 43.9, 44.2, 44.5, 44.8, 45.2, 45.5, 45.8, 46.1, 46.5, 46.8, 47.1, 47.5, 47.8, 48.2, 48.5, 48.9, 49.2, 49.6, 49.9, 50.3, 50.7, 51.0, 51.4, 51.8, 52.1, 52.5, 52.9, 53.3, 53.7, 54.1, 54.4, 54.8

listFr2 = DEFI_LIST_REEL(identifier='11:1',
                         DEBUT=20.0,
                         INTERVALLE=_F(JUSQU_A=2000.0,
                                       NOMBRE=100))

bcEB = AFFE_CHAR_MECA(identifier='12:1',
                      DDL_IMPO=_F(BLOCAGE=('DEPLACEMENT', 'ROTATION'),
                                  GROUP_NO=('EBedgeEnc', )),
                      MODELE=modelEB)

load0 = AFFE_CHAR_MECA(identifier='13:1',
                       FORCE_NODALE=_F(FZ=0.05,
                                       GROUP_NO=('Exc45', )),
                       MODELE=modelEB)

ASSEMBLAGE(identifier='14:1',
           CARA_ELEM=elemproEB,
           CHAM_MATER=fieldmatEB,
           CHARGE=(bcEB, ),
           MATR_ASSE=(_F(MATRICE=CO('MEB'),
                         OPTION='MASS_MECA'),
                      _F(MATRICE=CO('KEB'),
                         OPTION='RIGI_MECA'),
                      _F(MATRICE=CO('KH'),
                         OPTION='RIGI_MECA_HYST')),
           MODELE=modelEB,
           NUME_DDL=CO('nddl'),
           VECT_ASSE=_F(CHARGE=(load0, ),
                        OPTION='CHAR_MECA',
                        VECTEUR=CO('FZEB')))

modes = CALC_MODES(identifier='0:2',
                   CALC_FREQ=_F(NMAX_FREQ=1),
                   MATR_MASS=MEB,
                   MATR_RIGI=KH,
                   OPTION='PLUS_PETITE',
                   VERI_MODE=_F(STOP_ERREUR='NON'))

resEB = DYNA_VIBRA(identifier='0:3',
                   BASE_CALCUL='PHYS',
                   CARA_ELEM=elemproEB,
                   CHAM_MATER=fieldmatEB,
                   EXCIT=_F(CHARGE=load0,
                            COEF_MULT=1),
                   LIST_FREQ=listFr,
                   MATR_MASS=MEB,
                   MATR_RIGI=KH,
                   MODELE=modelEB,
                   SOLVEUR=_F(NPREC=9),
                   TYPE_CALCUL='HARM')

resTable = POST_RELEVE_T(identifier='0:4',
                         ACTION=_F(FORMAT_C='REEL',
                                   GROUP_NO=('EBfullEdge', ),
                                   INTITULE='ViteDZreel',
                                   NOM_CHAM='VITE',
                                   NOM_CMP=('DZ', ),
                                   OPERATION=('EXTRACTION', ),
                                   RESULTAT=resEB))

node_table = POST_RELEVE_T(identifier='1:4',
                           ACTION=_F(GROUP_NO=('AllNodesOrd2', 'EBedgeFree'),
                                     INTITULE='sh',
                                     NOM_CHAM='VITE',
                                     NOM_CMP=('DZ', ),
                                     NUME_ORDRE=(1, ),
                                     OPERATION=('EXTRACTION', ),
                                     RESULTAT=resEB))

resp__3 = RECU_FONCTION(identifier='2:4',
                        GROUP_NO=('Group_1', ),
                        NOM_CHAM='VITE',
                        NOM_CMP='DZ',
                        RESULTAT=resEB)

resp__2 = RECU_FONCTION(identifier='3:4',
                        GROUP_NO=('Group_2', ),
                        NOM_CHAM='VITE',
                        NOM_CMP='DZ',
                        RESULTAT=resEB)

resp__1 = RECU_FONCTION(identifier='4:4',
                        GROUP_NO=('Group_3', ),
                        NOM_CHAM='VITE',
                        NOM_CMP='DZ',
                        RESULTAT=resEB)

resp_0 = RECU_FONCTION(identifier='5:4',
                       GROUP_NO=('Group_4', ),
                       NOM_CHAM='VITE',
                       NOM_CMP='DZ',
                       RESULTAT=resEB)

resp_1 = RECU_FONCTION(identifier='6:4',
                       GROUP_NO=('Group_5', ),
                       NOM_CHAM='VITE',
                       NOM_CMP='DZ',
                       RESULTAT=resEB)

resp_2 = RECU_FONCTION(identifier='7:4',
                       GROUP_NO=('Group_6', ),
                       NOM_CHAM='VITE',
                       NOM_CMP='DZ',
                       RESULTAT=resEB)

resp_3 = RECU_FONCTION(identifier='8:4',
                       GROUP_NO=('Group_7', ),
                       NOM_CHAM='VITE',
                       NOM_CMP='DZ',
                       RESULTAT=resEB)

resp_4 = RECU_FONCTION(identifier='9:4',
                       GROUP_NO=('Group_8', ),
                       NOM_CHAM='VITE',
                       NOM_CMP='DZ',
                       RESULTAT=resEB)

resp_5 = RECU_FONCTION(identifier='10:4',
                       GROUP_NO=('Group_9', ),
                       NOM_CHAM='VITE',
                       NOM_CMP='DZ',
                       RESULTAT=resEB)

resp_6 = RECU_FONCTION(identifier='11:4',
                       GROUP_NO=('Group_10', ),
                       NOM_CHAM='VITE',
                       NOM_CMP='DZ',
                       RESULTAT=resEB)

resp_7 = RECU_FONCTION(identifier='12:4',
                       GROUP_NO=('Group_11', ),
                       NOM_CHAM='VITE',
                       NOM_CMP='DZ',
                       RESULTAT=resEB)

resp_8 = RECU_FONCTION(identifier='13:4',
                       GROUP_NO=('Group_12', ),
                       NOM_CHAM='VITE',
                       NOM_CMP='DZ',
                       RESULTAT=resEB)

resp_9 = RECU_FONCTION(identifier='14:4',
                       GROUP_NO=('Group_13', ),
                       NOM_CHAM='VITE',
                       NOM_CMP='DZ',
                       RESULTAT=resEB)

resp_10 = RECU_FONCTION(identifier='15:4',
                        GROUP_NO=('Group_14', ),
                        NOM_CHAM='VITE',
                        NOM_CMP='DZ',
                        RESULTAT=resEB)

resp_11 = RECU_FONCTION(identifier='16:4',
                        GROUP_NO=('Group_15', ),
                        NOM_CHAM='VITE',
                        NOM_CMP='DZ',
                        RESULTAT=resEB)

resp_12 = RECU_FONCTION(identifier='17:4',
                        GROUP_NO=('Group_16', ),
                        NOM_CHAM='VITE',
                        NOM_CMP='DZ',
                        RESULTAT=resEB)

resp_13 = RECU_FONCTION(identifier='18:4',
                        GROUP_NO=('Group_17', ),
                        NOM_CHAM='VITE',
                        NOM_CMP='DZ',
                        RESULTAT=resEB)

resp_14 = RECU_FONCTION(identifier='19:4',
                        GROUP_NO=('Group_18', ),
                        NOM_CHAM='VITE',
                        NOM_CMP='DZ',
                        RESULTAT=resEB)

resp_15 = RECU_FONCTION(identifier='20:4',
                        GROUP_NO=('Group_19', ),
                        NOM_CHAM='VITE',
                        NOM_CMP='DZ',
                        RESULTAT=resEB)

resp_16 = RECU_FONCTION(identifier='21:4',
                        GROUP_NO=('Group_20', ),
                        NOM_CHAM='VITE',
                        NOM_CMP='DZ',
                        RESULTAT=resEB)

resp_17 = RECU_FONCTION(identifier='22:4',
                        GROUP_NO=('Group_21', ),
                        NOM_CHAM='VITE',
                        NOM_CMP='DZ',
                        RESULTAT=resEB)

IMPR_FONCTION(identifier='23:4',
              COURBE=(_F(FONCTION=resp__3),
                      _F(FONCTION=resp__2),
                      _F(FONCTION=resp__1),
                      _F(FONCTION=resp_0),
                      _F(FONCTION=resp_1),
                      _F(FONCTION=resp_2,
                         LIST_PARA=listFr),
                      _F(FONCTION=resp_3,
                         LIST_PARA=listFr),
                      _F(FONCTION=resp_4),
                      _F(FONCTION=resp_5),
                      _F(FONCTION=resp_6),
                      _F(FONCTION=resp_7),
                      _F(FONCTION=resp_8),
                      _F(FONCTION=resp_9),
                      _F(FONCTION=resp_10),
                      _F(FONCTION=resp_11),
                      _F(FONCTION=resp_12),
                      _F(FONCTION=resp_13),
                      _F(FONCTION=resp_14),
                      _F(FONCTION=resp_15),
                      _F(FONCTION=resp_16),
                      _F(FONCTION=resp_17)),
              SEPARATEUR='  ',
              UNITE=4)

IMPR_FONCTION(identifier='24:4',
              COURBE=_F(FONCTION=resp_10,
                        MARQUEUR=0,
                        STYLE=1),
              FORMAT='XMGRACE',
              UNITE=2)

FIN()